
     RDKit          3D

 14 14  0  0  0  0  0  0  0  0999 V2000
   67.8533   78.5005  -85.6739 F   0  0  0  0  0  0  0  0  0  0  0  0
   66.9706   79.2921  -85.9923 C   0  0  0  0  0  0  0  0  0  0  0  0
   66.1641   79.5913  -85.1165 C   0  0  0  0  0  0  0  0  0  0  0  0
   65.2443   80.4217  -85.4561 C   0  0  0  0  0  0  0  0  0  0  0  0
   65.1771   80.9300  -86.6710 C   0  0  0  0  0  0  0  0  0  0  0  0
   64.2258   81.7742  -87.0013 N   0  0  0  0  0  0  0  0  0  0  0  0
   65.9858   80.6337  -87.5477 C   0  0  0  0  0  0  0  0  0  0  0  0
   66.8980   79.8015  -87.2081 C   0  0  0  0  0  0  0  0  0  0  0  0
   65.2211   71.4042  -81.1567 H   0  0  0  0  0  0  0  0  0  0  0  0
   63.3815   72.9613  -81.7258 H   0  0  0  0  0  0  0  0  0  0  0  0
   61.8601   73.8303  -83.7735 H   0  0  0  0  0  0  0  0  0  0  0  0
   62.9929   74.9083  -84.6077 H   0  0  0  0  0  0  0  0  0  0  0  0
   64.6898   73.0844  -85.7327 H   0  0  0  0  0  0  0  0  0  0  0  0
   66.5577   71.5058  -85.1630 H   0  0  0  0  0  0  0  0  0  0  0  0
  1  2  1  0
  2  3  2  0
  3  4  1  0
  4  5  2  0
  5  6  1  0
  5  7  1  0
  7  8  2  0
  8  2  1  0
  3  9  1  0
  4 10  1  0
  6 11  1  0
  6 12  1  0
  7 13  1  0
  8 14  1  0
M  END
>  <TETHERED ATOMS>  (1) 
1,2,3,4,5,7,8,6

$$$$
