
     RDKit          3D

 14 14  0  0  0  0  0  0  0  0999 V2000
   64.3094   81.6937  -86.9464 F   0  0  0  0  0  0  0  0  0  0  0  0
   65.1628   80.9277  -86.6495 C   0  0  0  0  0  0  0  0  0  0  0  0
   65.1902   80.4529  -85.4271 C   0  0  0  0  0  0  0  0  0  0  0  0
   66.0934   79.6534  -85.1389 C   0  0  0  0  0  0  0  0  0  0  0  0
   66.9459   79.3244  -86.0221 C   0  0  0  0  0  0  0  0  0  0  0  0
   67.8592   78.5061  -85.7048 N   0  0  0  0  0  0  0  0  0  0  0  0
   66.9321   79.7928  -87.2433 C   0  0  0  0  0  0  0  0  0  0  0  0
   66.0260   80.5940  -87.5348 C   0  0  0  0  0  0  0  0  0  0  0  0
   72.3868   82.3972  -86.4424 H   0  0  0  0  0  0  0  0  0  0  0  0
   74.1057   80.7510  -85.7566 H   0  0  0  0  0  0  0  0  0  0  0  0
   75.9376   78.8779  -87.2903 H   0  0  0  0  0  0  0  0  0  0  0  0
   76.9756   80.2398  -86.8131 H   0  0  0  0  0  0  0  0  0  0  0  0
   75.9109   81.1424  -89.6008 H   0  0  0  0  0  0  0  0  0  0  0  0
   74.2065   82.7875  -90.3084 H   0  0  0  0  0  0  0  0  0  0  0  0
  1  2  1  0
  2  3  2  0
  3  4  1  0
  4  5  2  0
  5  6  1  0
  5  7  1  0
  7  8  2  0
  8  2  1  0
  3  9  1  0
  4 10  1  0
  6 11  1  0
  6 12  1  0
  7 13  1  0
  8 14  1  0
M  END
>  <TETHERED ATOMS>  (1) 
1,2,3,4,5,7,8,6

$$$$
